/*--------------------------------*- C++ -*----------------------------------*\
  =========                 |
  \\      /  F ield         | OpenFOAM: The Open Source CFD Toolbox
   \\    /   O peration     | Website:  https://openfoam.org
    \\  /    A nd           | Version:  13
     \\/     M anipulation  |
\*---------------------------------------------------------------------------*/
FoamFile
{
    format      ascii;
    class       dictionary;
    location    "system";
    object      fvSolution;
}
// * * * * * * * * * * * * * * * * * * * * * * * * * * * * * * * * * * * * * //

solvers
{
    "rho.*"
    {
        solver          diagonal;
    }

    p
    {
        solver           PCG;
        preconditioner   DIC;
        tolerance        1e-6;
        relTol           0.1;
    }

    pFinal
    {
        $p;
        tolerance        1e-6;
        relTol           0.0;
    }

    "(U|h|k|epsilon)"
    {
        solver          PBiCGStab;
        preconditioner  DILU;
        tolerance       1e-6;
        relTol          0.1;
    }

    "(U|h|k|epsilon)Final"
    {
        $U;
        relTol          0;
    }

    "Yi.*"
    {
        $hFinal;
    }
}

PIMPLE
{
    momentumPredictor no;
    nOuterCorrectors  2;
    nCorrectors     3;
    nNonOrthogonalCorrectors 0;
}

relaxationFactors
{
    fields
    {
        p           0.7;
    }
    equations
    {
        H2          0.9;
        O2          0.9;
        H2O         0.9;
        h           0.9;
    }
}


// ************************************************************************* //
