FoamFile
{
    version     2.0;
    format      ascii;
    class       dictionary;
    location    "constant";
    object      thermophysicalProperties;
}

thermoType
{
    type            hePsiThermo;
    mixture         multicomponentMixture;
    transport       sutherland;
    thermo          janaf;
    equationOfState perfectGas;
    specie          specie;
    energy          sensibleEnthalpy;
}

species
(
    H2
    O2
    H2O
    N2
);

defaultSpecie N2;

H2
{
    specie
    {
        molWeight 2.01594;
    }
    thermodynamics
    {
        Tlow        100;
        Thigh       7000;
        Tcommon     1000;
        highCpCoeffs ( 3.33728 -4.94025e-05 4.99457e-07 -1.79566e-10 2.00255e-14 -950.159 -3.20502 );
        lowCpCoeffs  ( 2.34433 0.00798052 -1.94782e-05 2.01572e-08 -7.37612e-12 -917.935 0.68301 );
    }
    transport
    {
        As 1.67212e-06;
        Ts 170.672;
    }
}

O2
{
    specie
    {
        molWeight 31.9988;
    }
    thermodynamics
    {
        Tlow        100;
        Thigh       7000;
        Tcommon     1000;
        highCpCoeffs ( 3.28254 0.00148309 -7.57967e-07 2.09471e-10 -2.16718e-14 -1088.46 5.45323 );
        lowCpCoeffs  ( 3.78246 -0.00299673 9.8473e-06 -9.6813e-09 3.24373e-12 -1063.94 3.65768 );
    }
    transport
    {
        As 1.67212e-06;
        Ts 170.672;
    }
}

H2O
{
    specie
    {
        molWeight 18.0153;
    }
    thermodynamics
    {
        Tlow        100;
        Thigh       7000;
        Tcommon     1000;
        highCpCoeffs ( 3.03399 0.00217692 -1.64073e-07 -9.7042e-11 1.68201e-14 -30004.3 4.96677 );
        lowCpCoeffs  ( 4.19864 -0.00203643 6.5204e-06 -5.48797e-09 1.77198e-12 -30293.7 -0.849032 );
    }
    transport
    {
        As 1.67212e-06;
        Ts 170.672;
    }
}

N2
{
    specie
    {
        molWeight 28.0134;
    }
    thermodynamics
    {
        Tlow        100;
        Thigh       7000;
        Tcommon     1000;
        highCpCoeffs ( 2.92664 0.00148798 -5.68476e-07 1.0097e-10 -6.75335e-15 -922.798 5.98053 );
        lowCpCoeffs  ( 3.29868 0.00140824 -3.96322e-06 5.64152e-09 -2.44485e-12 -1020.9 3.95037 );
    }
    transport
    {
        As 1.67212e-06;
        Ts 170.672;
    }
}

reacting        yes;
