/*--------------------------------*- C++ -*----------------------------------*\
| =========                 |                                                |
| \\      /  F ield         | OpenFOAM: The Open Source CFD Toolbox         |
|  \\    /   O peration     | Website:  https://openfoam.org                |
|   \\  /    A nd           | Version:  13                                  |
|    \\/     M anipulation  |                                                |
\*---------------------------------------------------------------------------*/
FoamFile
{
    version     2.0;
    format      ascii;
    class       volScalarField;
    location    "0";
    object      N2;
}
// * * * * * * * * * * * * * * * * * * * * * * * * * * * * * * * * * * * * * //

dimensions      [0 0 0 0 0 0 0];
internalField   uniform 1;

boundaryField
{
    airinlet
    {
        type            fixedValue;
        value           uniform 0.767;  
    }

    outlet
    {
        type            inletOutlet;
        inletValue      uniform 1;
        value           uniform 1;
    }

    plate
    {
        type            zeroGradient;
    }

    jetinlet
    {
        type            fixedValue;
        value           uniform 0;     
    }

    farfield
    {
        type            inletOutlet;
        inletValue      uniform 1;
        value           uniform 1;
    }

    frontAndBackPlanes
    {
        type            empty;
    }
}
// ************************************************************************* //
